Circuit: * TLV3501

Fatal Error: No analysis request found.
